STAAD SPACE
START JOB INFORMATION
ENGINEER DATE 14-Jan-25
END JOB INFORMATION
INPUT WIDTH 79
UNIT METER KN
JOINT COORDINATES
1 0 0 0; 2 7.00001 0 0; 3 14 0 0; 4 21 0 0; 5 28.0001 0 0; 6 35.0001 0 0;
7 42.0001 0 0; 8 49.0001 0 0; 9 56.0001 0 0; 10 63.0001 0 0; 11 70.0001 0 0;
12 7.00001 3.00001 0; 13 14 3.00001 0; 14 21 3.00001 0; 15 28.0001 3.00001 0;
16 35.0001 3.00001 0; 17 42.0001 3.00001 0; 18 49.0001 3.00001 0;
19 56.0001 3.00001 0; 20 63.0001 3.00001 0; 21 0 -10 0; 22 70.0001 -10 0;
23 0 0 4.50001; 24 7.00001 0 4.50001; 25 14 0 4.50001; 26 21 0 4.50001;
27 28.0001 0 4.50001; 28 35.0001 0 4.50001; 29 42.0001 0 4.50001;
30 49.0001 0 4.50001; 31 56.0001 0 4.50001; 32 63.0001 0 4.50001;
33 70.0001 0 4.50001; 34 7.00001 3.00001 4.50001; 35 14 3.00001 4.50001;
36 21 3.00001 4.50001; 37 28.0001 3.00001 4.50001; 38 35.0001 3.00001 4.50001;
39 42.0001 3.00001 4.50001; 40 49.0001 3.00001 4.50001;
41 56.0001 3.00001 4.50001; 42 63.0001 3.00001 4.50001; 43 0 -10 4.50001;
44 70.0001 -10 4.50001;
MEMBER INCIDENCES
1 1 2; 2 2 3; 3 3 4; 4 4 5; 5 5 6; 6 6 7; 7 7 8; 8 8 9; 9 9 10; 10 10 11;
11 2 12; 12 3 13; 13 4 14; 14 5 15; 15 6 16; 16 7 17; 17 8 18; 18 9 19;
19 10 20; 20 12 13; 21 13 14; 22 14 15; 23 15 16; 24 16 17; 25 17 18; 26 18 19;
27 19 20; 28 1 12; 29 12 3; 30 13 4; 31 4 15; 32 5 16; 33 16 7; 34 17 8;
35 8 19; 36 9 20; 37 20 11; 38 1 21; 39 11 22; 40 1 23; 41 2 24; 42 3 25;
43 4 26; 44 5 27; 45 6 28; 46 7 29; 47 8 30; 48 9 31; 49 10 32; 50 11 33;
62 23 24; 63 24 25; 64 25 26; 65 26 27; 66 27 28; 67 28 29; 68 29 30; 69 30 31;
70 31 32; 71 32 33; 72 24 34; 73 25 35; 74 26 36; 75 27 37; 76 28 38; 77 29 39;
78 30 40; 79 31 41; 80 32 42; 81 34 35; 82 35 36; 83 36 37; 84 37 38; 85 38 39;
86 39 40; 87 40 41; 88 41 42; 89 23 34; 90 34 25; 91 35 26; 92 26 37; 93 27 38;
94 38 29; 95 39 30; 96 30 41; 97 31 42; 98 42 33; 99 23 43; 100 33 44;
DEFINE MATERIAL START
ISOTROPIC STEEL
E 1.99947e+08
POISSON 0.3
DENSITY 76.8191
ALPHA 6.5e-06
DAMP 0.03
G 7.7221e+07
TYPE STEEL
STRENGTH RY 1.5 RT 1.2
END DEFINE MATERIAL
MEMBER PROPERTY JAPANESE
1 TO 50 62 TO 100 TABLE ST I150X75X5.5
CONSTANTS
MATERIAL STEEL ALL
SUPPORTS
21 22 43 44 FIXED
DEFINE IS1893 2016 LOAD
ZONE 0.24 RF 5 I 1 SS 3 ST 3 DM 0.05
SELFWEIGHT 1
MEMBER WEIGHT
1 TO 10 40 TO 50 62 TO 71 UNI 12.1 0 0
FLOOR WEIGHT
YRANGE 3 9 FLOAD 4.79
DEFINE WIND LOAD
TYPE 1 WIND LOAD
<! STAAD PRO GENERATED DATA DO NOT MODIFY !!!
SNIP-2016:PARAMS 
!> END GENERATED DATA BLOCK
SP20 2016 PRESSURE 100 TERRAIN B REG 0 LOG 0.3
EXP 0.8 JOINT 1 TO 44
LOAD 1 LOADTYPE Dead  TITLE dead load
SELFWEIGHT Y -1 LIST ALL
LOAD 2 LOADTYPE Live  TITLE live load
JOINT LOAD
1 TO 11 23 TO 33 FY -177
LOAD 3 LOADTYPE Seismic-H  TITLE seismic-h
SELFWEIGHT X -1 LIST 1 TO 10 20 TO 27 41 TO 49 62 TO 71 81 TO 88
LOAD 4 LOADTYPE Seismic-V  TITLE seismic-v
SELFWEIGHT Y -1 LIST 11 TO 19 38 39 72 TO 80 99 100
LOAD 5 LOADTYPE Wind  TITLE wind load
SELFWEIGHT Y -1 LIST 11 TO 19 38 39 72 TO 80 99 100
SELFWEIGHT X -1 LIST 1 TO 10 20 TO 27 62 TO 71 81 TO 88
SELFWEIGHT Z -1 LIST 40 TO 50
PERFORM ANALYSIS PRINT STATICS CHECK
FINISH
